3
grid point 1
O -0.01108657781234889 -0.014278966339597613 7.741323149738485e-18
H 1.2152411678077915 -0.017222150314640843 2.9623038205727317e-19
H -0.3178241215257634 1.173067556464289 2.8917331606808923e-19
3
grid point 2
O -0.010624637070167687 -0.013684009408781048 7.418768018499381e-18
H 1.2045498691491334 -0.016504560718197475 2.8388744947155343e-19
H -0.3144796164621899 1.1628876582782768 2.771244278985855e-19
3
grid point 3
O -0.01016269632798648 -0.013089052477964477 7.096212887260277e-18
H 1.1938585704904754 -0.015786971121754104 2.7154451688583374e-19
H -0.31113511139861644 1.1527077600922648 2.6507553972908183e-19
3
grid point 4
O -0.009700755585805278 -0.01249409554714791 6.773657756021173e-18
H 1.1831672718318176 -0.015069381525310736 2.592015843001141e-19
H -0.3077906063350429 1.1425278619062527 2.5302665155957814e-19
3
grid point 5
O -0.009238814843624075 -0.011899138616331344 6.45110262478207e-18
H 1.1724759731731595 -0.014351791928867368 2.468586517143943e-19
H -0.3044461012714695 1.1323479637202407 2.409777633900744e-19
3
grid point 6
O -0.00877687410144287 -0.011304181685514777 6.128547493542966e-18
H 1.1617846745145015 -0.013634202332423998 2.345157191286746e-19
H -0.30110159620789595 1.1221680655342288 2.2892887522057064e-19
3
grid point 7
O -0.008314933359261667 -0.01070922475469821 5.805992362303863e-18
H 1.1510933758558435 -0.012916612735980632 2.221727865429549e-19
H -0.2977570911443225 1.1119881673482166 2.1687998705106695e-19
3
grid point 8
O -0.007852992617080463 -0.010114267823881643 5.4834372310647594e-18
H 1.1404020771971854 -0.012199023139537262 2.098298539572352e-19
H -0.29441258608074905 1.1018082691622044 2.0483109888156322e-19
3
grid point 9
O -0.00739105187489926 -0.009519310893065075 5.160882099825656e-18
H 1.1297107785385274 -0.011481433543093895 1.9748692137151544e-19
H -0.2910680810171756 1.0916283709761925 1.9278221071205948e-19
3
grid point 10
O -0.006929111132718056 -0.008924353962248508 4.8383269685865525e-18
H 1.1190194798798696 -0.010763843946650526 1.8514398878579573e-19
H -0.2877235759536021 1.0814484727901805 1.8073332254255576e-19
3
grid point 11
O -0.0064671703905368515 -0.008329397031431941 4.515771837347449e-18
H 1.1083281812212118 -0.010046254350207158 1.72801056200076e-19
H -0.2843790708900286 1.0712685746041684 1.6868443437305206e-19
3
grid point 12
O -0.006005229648355649 -0.007734440100615373 4.1932167061083455e-18
H 1.0976368825625538 -0.009328664753763788 1.6045812361435632e-19
H -0.28103456582645514 1.0610886764181566 1.5663554620354834e-19
3
grid point 13
O -0.005543288906174445 -0.007139483169798806 3.8706615748692424e-18
H 1.0869455839038957 -0.008611075157320422 1.4811519102863659e-19
H -0.27769006076288166 1.0509087782321445 1.4458665803404461e-19
3
grid point 14
O -0.00508134816399324 -0.006544526238982239 3.5481064436301386e-18
H 1.0762542852452377 -0.007893485560877052 1.3577225844291687e-19
H -0.2743455556993082 1.0407288800461325 1.3253776986454092e-19
3
grid point 15
O -0.004619407421812037 -0.005949569308165672 3.225551312391035e-18
H 1.0655629865865797 -0.007175895964433684 1.2342932585719716e-19
H -0.27100105063573476 1.0305489818601203 1.204888816950372e-19
3
grid point 16
O -0.004157466679630834 -0.005354612377349105 2.9029961811519316e-18
H 1.0548716879279216 -0.006458306367990316 1.1108639327147744e-19
H -0.26765654557216123 1.0203690836741084 1.0843999352553347e-19
3
grid point 17
O -0.00369552593744963 -0.004759655446532537 2.580441049912828e-18
H 1.0441803892692638 -0.005740716771546948 9.874346068575772e-20
H -0.26431204050858775 1.0101891854880962 9.639110535602974e-20
3
grid point 18
O -0.0032335851952684258 -0.0041646985157159705 2.2578859186737247e-18
H 1.0334890906106058 -0.005023127175103579 8.6400528100038e-20
H -0.2609675354450143 1.0000092873020843 8.434221718652603e-20
3
grid point 19
O -0.0027716444530872224 -0.003569741584899403 1.9353307874346212e-18
H 1.0227977919519478 -0.004305537578660211 7.405759551431829e-20
H -0.2576230303814408 0.9898293891160722 7.229332901702231e-20
3
grid point 20
O -0.0023097037109060187 -0.002974784654082836 1.6127756561955176e-18
H 1.01210649329329 -0.003587947982216842 6.171466292859858e-20
H -0.2542785253178673 0.9796494909300602 6.02444408475186e-20
3
grid point 21
O -0.001847762968724815 -0.0023798277232662686 1.290220524956414e-18
H 1.001415194634632 -0.002870358385773474 4.937173034287886e-20
H -0.25093402025429384 0.9694695927440481 4.819555267801487e-20
3
grid point 22
O -0.0013858222265436112 -0.0017848707924497016 9.676653937173106e-19
H 0.9907238959759739 -0.0021527687893301054 3.7028797757159146e-20
H -0.2475895151907204 0.959289694558036 3.6146664508511154e-20
3
grid point 23
O -0.0009238814843624075 -0.0011899138616331343 6.45110262478207e-19
H 0.980032597317316 -0.001435179192886737 2.468586517143943e-20
H -0.24424501012714692 0.9491097963720241 2.4097776339007435e-20
3
grid point 24
O -0.00046194074218120374 -0.0005949569308165672 3.225551312391035e-19
H 0.9693412986586579 -0.0007175895964433685 1.2342932585719715e-20
H -0.24090050506357344 0.938929898186012 1.2048888169503717e-20
3
grid point 25
O 0.0 0.0 0.0
H 0.95865 0.0 0.0
H -0.23755599999999996 0.92875 0.0
3
grid point 26
O 0.00046194074218120374 0.0005949569308165672 -3.225551312391035e-19
H 0.947958701341342 0.0007175895964433685 -1.2342932585719715e-20
H -0.2342114949364265 0.9185701018139879 -1.2048888169503717e-20
3
grid point 27
O 0.0009238814843624075 0.0011899138616331343 -6.45110262478207e-19
H 0.9372674026826839 0.001435179192886737 -2.468586517143943e-20
H -0.23086698987285303 0.9083902036279758 -2.4097776339007435e-20
3
grid point 28
O 0.0013858222265436112 0.0017848707924497016 -9.676653937173106e-19
H 0.9265761040240261 0.0021527687893301054 -3.7028797757159146e-20
H -0.22752248480927956 0.8982103054419638 -3.6146664508511154e-20
3
grid point 29
O 0.001847762968724815 0.0023798277232662686 -1.290220524956414e-18
H 0.9158848053653681 0.002870358385773474 -4.937173034287886e-20
H -0.22417797974570608 0.8880304072559517 -4.819555267801487e-20
3
grid point 30
O 0.0023097037109060187 0.002974784654082836 -1.6127756561955176e-18
H 0.9051935067067101 0.003587947982216842 -6.171466292859858e-20
H -0.2208334746821326 0.8778505090699397 -6.02444408475186e-20
3
grid point 31
O 0.0027716444530872224 0.003569741584899403 -1.9353307874346212e-18
H 0.894502208048052 0.004305537578660211 -7.405759551431829e-20
H -0.21748896961855912 0.8676706108839277 -7.229332901702231e-20
3
grid point 32
O 0.0032335851952684258 0.0041646985157159705 -2.2578859186737247e-18
H 0.8838109093893941 0.005023127175103579 -8.6400528100038e-20
H -0.21414446455498565 0.8574907126979157 -8.434221718652603e-20
3
grid point 33
O 0.00369552593744963 0.004759655446532537 -2.580441049912828e-18
H 0.8731196107307362 0.005740716771546948 -9.874346068575772e-20
H -0.2107999594914122 0.8473108145119037 -9.639110535602974e-20
3
grid point 34
O 0.004157466679630834 0.005354612377349105 -2.9029961811519316e-18
H 0.8624283120720782 0.006458306367990316 -1.1108639327147744e-19
H -0.20745545442783872 0.8371309163258915 -1.0843999352553347e-19
3
grid point 35
O 0.004619407421812037 0.005949569308165672 -3.225551312391035e-18
H 0.8517370134134202 0.007175895964433684 -1.2342932585719716e-19
H -0.20411094936426522 0.8269510181398796 -1.204888816950372e-19
3
grid point 36
O 0.00508134816399324 0.006544526238982239 -3.5481064436301386e-18
H 0.8410457147547622 0.007893485560877052 -1.3577225844291687e-19
H -0.20076644430069177 0.8167711199538674 -1.3253776986454092e-19
3
grid point 37
O 0.005543288906174445 0.007139483169798806 -3.8706615748692424e-18
H 0.8303544160961042 0.008611075157320422 -1.4811519102863659e-19
H -0.19742193923711826 0.8065912217678555 -1.4458665803404461e-19
3
grid point 38
O 0.006005229648355649 0.007734440100615373 -4.1932167061083455e-18
H 0.8196631174374464 0.009328664753763788 -1.6045812361435632e-19
H -0.1940774341735448 0.7964113235818434 -1.5663554620354834e-19
3
grid point 39
O 0.0064671703905368515 0.008329397031431941 -4.515771837347449e-18
H 0.8089718187787883 0.010046254350207158 -1.72801056200076e-19
H -0.1907329291099713 0.7862314253958315 -1.6868443437305206e-19
3
grid point 40
O 0.006929111132718056 0.008924353962248508 -4.8383269685865525e-18
H 0.7982805201201303 0.010763843946650526 -1.8514398878579573e-19
H -0.18738842404639786 0.7760515272098194 -1.8073332254255576e-19
3
grid point 41
O 0.00739105187489926 0.009519310893065075 -5.160882099825656e-18
H 0.7875892214614724 0.011481433543093895 -1.9748692137151544e-19
H -0.18404391898282438 0.7658716290238073 -1.9278221071205948e-19
