3
grid point 1
O 0.025831837434900966 0.03327077081940762 -1.7202940332752187e-17
H 0.9540268502818356 -0.4204722198643773 1.341978955378509e-17
H -0.6437673075426622 0.8200774713001633 1.3403579366644773e-17
3
grid point 2
O 0.024540245563155913 0.03160723227843724 -1.6342793316114577e-17
H 0.9542580077677439 -0.3994486088711585 1.2748800076095835e-17
H -0.623456742165529 0.8255110977351553 1.2733400398312535e-17
3
grid point 3
O 0.023248653691410867 0.029943693737466862 -1.548264629947697e-17
H 0.9544891652536521 -0.37842499787793965 1.207781059840658e-17
H -0.603146176788396 0.8309447241701471 1.2063221429980296e-17
3
grid point 4
O 0.021957061819665818 0.02828015519649648 -1.462249928283936e-17
H 0.9547203227395603 -0.35740138688472073 1.1406821120717325e-17
H -0.5828356114112628 0.8363783506051389 1.1393042461648058e-17
3
grid point 5
O 0.02066546994792077 0.026616616655526098 -1.376235226620175e-17
H 0.9549514802254686 -0.33637777589150186 1.073583164302807e-17
H -0.5625250460341297 0.8418119770401307 1.0722863493315818e-17
3
grid point 6
O 0.01937387807617572 0.02495307811455572 -1.290220524956414e-17
H 0.9551826377113768 -0.31535416489828305 1.0064842165338815e-17
H -0.5422144806569966 0.8472456034751226 1.005268452498358e-17
3
grid point 7
O 0.01808228620443067 0.023289539573585333 -1.204205823292653e-17
H 0.955413795197285 -0.29433055390506413 9.39385268764956e-18
H -0.5219039152798635 0.8526792299101144 9.382505556651342e-18
3
grid point 8
O 0.016790694332685624 0.021626001032614955 -1.1181911216288923e-17
H 0.9556449526831932 -0.27330694291184526 8.722863209960308e-18
H -0.5015933499027304 0.8581128563451061 8.712326588319102e-18
3
grid point 9
O 0.015499102460940576 0.019962462491644573 -1.0321764199651313e-17
H 0.9558761101691015 -0.2522833319186264 8.051873732271053e-18
H -0.4812827845255973 0.8635464827800979 8.042147619986864e-18
3
grid point 10
O 0.014207510589195527 0.01829892395067419 -9.461617183013702e-18
H 0.9561072676550096 -0.23125972092540753 7.380884254581797e-18
H -0.4609722191484642 0.8689801092150898 7.371968651654626e-18
3
grid point 11
O 0.012915918717450483 0.01663538540970381 -8.601470166376094e-18
H 0.9563384251409178 -0.21023610993218864 6.709894776892545e-18
H -0.44066165377133104 0.8744137356500817 6.701789683322386e-18
3
grid point 12
O 0.011624326845705434 0.014971846868733431 -7.741323149738485e-18
H 0.9565695826268261 -0.18921249893896983 6.03890529920329e-18
H -0.42035108839419794 0.8798473620850735 6.031610714990148e-18
3
grid point 13
O 0.010332734973960384 0.013308308327763049 -6.881176133100875e-18
H 0.9568007401127343 -0.16818888794575093 5.367915821514035e-18
H -0.4000405230170648 0.8852809885200653 5.361431746657909e-18
3
grid point 14
O 0.009041143102215335 0.011644769786792667 -6.021029116463265e-18
H 0.9570318975986425 -0.14716527695253206 4.69692634382478e-18
H -0.3797299576399317 0.8907146149550571 4.691252778325671e-18
3
grid point 15
O 0.007749551230470288 0.009981231245822286 -5.160882099825656e-18
H 0.9572630550845507 -0.1261416659593132 4.025936866135527e-18
H -0.3594193922627987 0.8961482413900489 4.021073809993432e-18
3
grid point 16
O 0.0064579593587252414 0.008317692704851906 -4.300735083188047e-18
H 0.957494212570459 -0.10511805496609432 3.3549473884462724e-18
H -0.3391088268856655 0.9015818678250408 3.350894841661193e-18
3
grid point 17
O 0.005166367486980192 0.0066541541638815245 -3.4405880665504377e-18
H 0.9577253700563672 -0.08409444397287547 2.6839579107570177e-18
H -0.3187982615085324 0.9070154942600326 2.6807158733289546e-18
3
grid point 18
O 0.003874775615235144 0.004990615622911143 -2.580441049912828e-18
H 0.9579565275422753 -0.0630708329796566 2.0129684330677633e-18
H -0.29848769613139925 0.9124491206950245 2.010536904996716e-18
3
grid point 19
O 0.002583183743490096 0.0033270770819407622 -1.7202940332752188e-18
H 0.9581876850281835 -0.04204722198643773 1.3419789553785088e-18
H -0.2781771307542662 0.9178827471300163 1.3403579366644773e-18
3
grid point 20
O 0.001291591871745048 0.0016635385409703811 -8.601470166376094e-19
H 0.9584188425140918 -0.021023610993218866 6.709894776892544e-19
H -0.2578665653771331 0.9233163735650082 6.701789683322387e-19
3
grid point 21
O 0.0 0.0 0.0
H 0.95865 0.0 0.0
H -0.23755599999999996 0.92875 0.0
3
grid point 22
O -0.001291591871745048 -0.0016635385409703811 8.601470166376094e-19
H 0.9588811574859082 0.021023610993218866 -6.709894776892544e-19
H -0.21724543462286688 0.9341836264349918 -6.701789683322387e-19
3
grid point 23
O -0.002583183743490096 -0.0033270770819407622 1.7202940332752188e-18
H 0.9591123149718165 0.04204722198643773 -1.3419789553785088e-18
H -0.19693486924573375 0.9396172528699835 -1.3403579366644773e-18
3
grid point 24
O -0.003874775615235144 -0.004990615622911143 2.580441049912828e-18
H 0.9593434724577247 0.0630708329796566 -2.0129684330677633e-18
H -0.17662430386860065 0.9450508793049753 -2.010536904996716e-18
3
grid point 25
O -0.005166367486980192 -0.0066541541638815245 3.4405880665504377e-18
H 0.9595746299436329 0.08409444397287547 -2.6839579107570177e-18
H -0.15631373849146754 0.9504845057399673 -2.6807158733289546e-18
3
grid point 26
O -0.0064579593587252414 -0.008317692704851906 4.300735083188047e-18
H 0.959805787429541 0.10511805496609432 -3.3549473884462724e-18
H -0.1360031731143344 0.9559181321749591 -3.350894841661193e-18
3
grid point 27
O -0.007749551230470288 -0.009981231245822286 5.160882099825656e-18
H 0.9600369449154493 0.1261416659593132 -4.025936866135527e-18
H -0.11569260773720132 0.9613517586099509 -4.021073809993432e-18
3
grid point 28
O -0.009041143102215335 -0.011644769786792667 6.021029116463265e-18
H 0.9602681024013574 0.14716527695253206 -4.69692634382478e-18
H -0.09538204236006823 0.9667853850449427 -4.691252778325671e-18
3
grid point 29
O -0.010332734973960384 -0.013308308327763049 6.881176133100875e-18
H 0.9604992598872656 0.16818888794575093 -5.367915821514035e-18
H -0.07507147698293512 0.9722190114799346 -5.361431746657909e-18
3
grid point 30
O -0.011624326845705434 -0.014971846868733431 7.741323149738485e-18
H 0.9607304173731738 0.18921249893896983 -6.03890529920329e-18
H -0.054760911605801994 0.9776526379149264 -6.031610714990148e-18
3
grid point 31
O -0.012915918717450483 -0.01663538540970381 8.601470166376094e-18
H 0.9609615748590821 0.21023610993218864 -6.709894776892545e-18
H -0.03445034622866887 0.9830862643499182 -6.701789683322386e-18
3
grid point 32
O -0.014207510589195527 -0.01829892395067419 9.461617183013702e-18
H 0.9611927323449903 0.23125972092540753 -7.380884254581797e-18
H -0.014139780851535767 0.98851989078491 -7.371968651654626e-18
3
grid point 33
O -0.015499102460940576 -0.019962462491644573 1.0321764199651313e-17
H 0.9614238898308984 0.2522833319186264 -8.051873732271053e-18
H 0.006170784525597332 0.9939535172199019 -8.042147619986864e-18
3
grid point 34
O -0.016790694332685624 -0.021626001032614955 1.1181911216288923e-17
H 0.9616550473168067 0.27330694291184526 -8.722863209960308e-18
H 0.02648134990273043 0.9993871436548938 -8.712326588319102e-18
3
grid point 35
O -0.01808228620443067 -0.023289539573585333 1.204205823292653e-17
H 0.9618862048027149 0.29433055390506413 -9.39385268764956e-18
H 0.04679191527986353 1.0048207700898855 -9.382505556651342e-18
3
grid point 36
O -0.01937387807617572 -0.02495307811455572 1.290220524956414e-17
H 0.9621173622886231 0.31535416489828305 -1.0064842165338815e-17
H 0.06710248065699666 1.0102543965248774 -1.005268452498358e-17
3
grid point 37
O -0.02066546994792077 -0.026616616655526098 1.376235226620175e-17
H 0.9623485197745313 0.33637777589150186 -1.073583164302807e-17
H 0.08741304603412973 1.0156880229598693 -1.0722863493315818e-17
3
grid point 38
O -0.021957061819665818 -0.02828015519649648 1.462249928283936e-17
H 0.9625796772604396 0.35740138688472073 -1.1406821120717325e-17
H 0.10772361141126291 1.021121649394861 -1.1393042461648058e-17
3
grid point 39
O -0.023248653691410867 -0.029943693737466862 1.548264629947697e-17
H 0.9628108347463478 0.37842499787793965 -1.207781059840658e-17
H 0.128034176788396 1.0265552758298528 -1.2063221429980296e-17
3
grid point 40
O -0.024540245563155913 -0.03160723227843724 1.6342793316114577e-17
H 0.963041992232256 0.3994486088711585 -1.2748800076095835e-17
H 0.14834474216552912 1.0319889022648445 -1.2733400398312535e-17
3
grid point 41
O -0.025831837434900966 -0.03327077081940762 1.7202940332752187e-17
H 0.9632731497181642 0.4204722198643773 -1.341978955378509e-17
H 0.16865530754266225 1.0374225286998366 -1.3403579366644773e-17
